PPI
  CCTOOLS-1004241121

 11 10  0  0  0  0  0  0  0  0999 V2000
   -0.0270    0.0000   -0.4810 C   0  0  0  0  0
    0.8300    0.0000    0.7560 C   0  0  0  0  0
   -0.0640    0.0000    1.9970 C   0  0  0  0  0
   -1.2310    0.0000   -0.3820 O   0  0  0  0  0
    0.5450    0.0000   -1.6950 O   0  0  0  0  0
    1.4600    0.8900    0.7620 H   0  0  0  0  0
    1.4600   -0.8900    0.7620 H   0  0  0  0  0
    0.5560    0.0000    2.8930 H   0  0  0  0  0
   -0.6930    0.8900    1.9910 H   0  0  0  0  0
   -0.6930   -0.8900    1.9910 H   0  0  0  0  0
   -0.0050    0.0000   -2.4900 H   0  0  0  0  0
  1  2  1  0  0  0
  1  4  2  0  0  0
  1  5  1  0  0  0
  2  3  1  0  0  0
  2  6  1  0  0  0
  2  7  1  0  0  0
  3  8  1  0  0  0
  3  9  1  0  0  0
  3 10  1  0  0  0
  5 11  1  0  0  0
M  END
$$$$
